Version 4
SHEET 1 880 680
WIRE 416 -112 -16 -112
WIRE -80 16 -304 16
WIRE 96 80 48 80
WIRE 352 80 352 16
WIRE 352 80 320 80
WIRE -464 96 -464 64
WIRE -464 144 -464 128
WIRE -160 144 -224 144
WIRE -80 144 -80 16
WIRE -16 144 -16 -112
WIRE -16 144 -80 144
WIRE 96 144 -16 144
WIRE -160 176 -160 144
WIRE -304 208 -304 16
WIRE -224 208 -224 144
WIRE -208 208 -224 208
WIRE 48 208 -112 208
WIRE 96 208 48 208
WIRE 416 208 416 -112
WIRE 416 208 320 208
WIRE 96 272 48 272
WIRE 352 272 320 272
WIRE -80 304 -80 144
WIRE -80 384 -80 368
FLAG 48 80 0
FLAG -464 144 0
FLAG -464 64 VCC
FLAG 416 272 0
FLAG 48 272 VCC
FLAG -80 384 0
FLAG 48 208 out
FLAG 352 16 VCC
SYMBOL Misc\\NE555 208 176 R0
SYMATTR InstName U1
SYMBOL MiniSyms4\\voltage- -464 112 R0
SYMATTR InstName V1
SYMATTR Value 15
SYMBOL cap 416 256 R90
WINDOW 0 0 32 VBottom 2
WINDOW 3 32 32 VTop 2
SYMATTR InstName C1
SYMATTR Value 0.01
SYMBOL cap -96 304 R0
SYMATTR InstName C2
SYMATTR Value 1e-6
SYMBOL res -208 192 R90
WINDOW 0 0 56 VBottom 2
WINDOW 3 32 56 VTop 2
SYMATTR InstName R1
SYMATTR Value 680
SYMBOL EXTRA\\Misc\\pot -160 208 R90
SYMATTR InstName U2
SYMATTR Value R=1k8
SYMATTR Value2 T=.9
TEXT 24 416 Left 2 !.tran 0.1
